LTspice 24.0.9 for Windows
Circuit: * C:\Users\user\Desktop\Rajorshi Barman\12vsupply.asc
Start Time: Wed Jul 31 00:25:34 2024
solver = Normal
Maximum thread count: 4
tnom = 27
temp = 27
method = modified trap
Direct Newton iteration for .op point succeeded.
Total elapsed time: 0.267 seconds.

