LTspice 24.0.9 for Windows
Circuit: * C:\Users\user\Desktop\Rajorshi Barmon\Draft1.asc
Start Time: Tue Jul 23 05:54:20 2024
solver = Normal
Maximum thread count: 4
tnom = 27
temp = 27
method = modified trap
WARNING: Node N004 is floating.

WARNING: Less than two connections to node n004.  This node is used by r1.
.OP point found by inspection.
Total elapsed time: 0.053 seconds.

