LTspice 24.0.12 for Windows
Circuit: * C:\Users\91983\OneDrive\Desktop\12v adapter\12v DC supply adapter.asc
Start Time: Fri Sep 13 01:28:04 2024
solver = Normal
Maximum thread count: 4
tnom = 27
temp = 27
method = modified trap
Direct Newton iteration for .op point succeeded.
Total elapsed time: 0.176 seconds.

